Version 4
SHEET 1 3700 1220
WIRE 848 -464 784 -464
WIRE 848 -448 848 -464
WIRE 784 -336 784 -464
WIRE 848 -336 784 -336
WIRE 1200 -320 1200 -352
WIRE 1248 -320 1200 -320
WIRE 1344 -320 1328 -320
WIRE 1616 -272 1616 -288
WIRE 1616 -272 1248 -272
WIRE 464 -256 368 -256
WIRE 1248 -256 1248 -272
WIRE 1200 -240 1200 -320
WIRE 1216 -240 1200 -240
WIRE 368 -224 368 -256
WIRE 464 -224 464 -256
WIRE 512 -224 464 -224
WIRE 640 -224 640 -240
WIRE 1344 -224 1344 -320
WIRE 1344 -224 1280 -224
WIRE 1680 -224 1344 -224
WIRE 1216 -208 1120 -208
WIRE 1680 -192 1680 -224
WIRE 1696 -192 1680 -192
WIRE 1920 -192 1776 -192
WIRE 848 -176 848 -336
WIRE 816 -160 688 -160
WIRE 816 -128 768 -128
WIRE 1248 -112 1248 -192
WIRE 1248 -112 1168 -112
WIRE 1120 -80 1120 -208
WIRE 1120 -80 1056 -80
WIRE 240 -64 208 -64
WIRE 368 -64 240 -64
WIRE 512 -64 368 -64
WIRE 608 -64 512 -64
WIRE 688 -64 688 -160
WIRE 688 -64 608 -64
WIRE 768 -32 768 -48
WIRE 816 -32 768 -32
WIRE 816 0 768 0
WIRE 1920 0 1920 -192
WIRE 768 16 768 0
WIRE 208 32 208 -64
WIRE 608 32 608 -64
WIRE 624 32 608 32
WIRE 1168 32 1168 -112
WIRE 1264 32 1264 0
WIRE 1264 32 1168 32
WIRE 1120 64 1120 -80
WIRE 1920 112 1920 64
WIRE 208 176 208 112
WIRE 288 176 208 176
WIRE 624 176 624 112
WIRE 624 176 288 176
WIRE 1120 176 1120 144
WIRE 848 240 848 16
WIRE 848 240 800 240
WIRE 800 384 800 240
WIRE 832 384 832 368
WIRE 832 384 800 384
FLAG 288 176 0
FLAG 464 -224 0
FLAG 1120 176 0
FLAG 1920 112 0
FLAG 240 -224 0
FLAG 848 -368 0
FLAG 832 288 0
FLAG 1696 -288 0
FLAG 1264 -80 0
FLAG 1200 -432 0
FLAG 928 -16 0
FLAG 768 16 0
SYMBOL voltage 208 16 R0
WINDOW 3 24 44 Left 0
SYMATTR Value PWL REPEAT FOREVER( file="C:\Users\switi\Downloads\ECG-LTSPICE.txt")ENDREPEAT
SYMATTR InstName V1
SYMBOL res 608 16 R0
SYMATTR InstName R1
SYMATTR Value 1k
SYMBOL voltage 368 -240 R0
WINDOW 123 0 0 Left 0
WINDOW 39 0 0 Left 0
WINDOW 3 24 96 Left 0
SYMATTR Value SINE(0 0.5 0.5 0 0 0 10)
SYMATTR InstName V2
SYMBOL voltage 512 -240 R0
WINDOW 123 0 0 Left 0
WINDOW 39 0 0 Left 0
WINDOW 3 24 96 Left 0
SYMATTR Value SINE(0 0.5 50 0 0 0 10)
SYMATTR InstName V3
SYMBOL res 352 -160 R0
SYMATTR InstName R2
SYMATTR Value 1 meg
SYMBOL res 496 -160 R0
SYMATTR InstName R3
SYMATTR Value 1 meg
SYMBOL bv 240 -240 R0
WINDOW 3 24 96 Left 0
SYMATTR Value V=white(0)*0.001
SYMATTR InstName B1
SYMBOL res 224 -160 R0
SYMATTR InstName R4
SYMATTR Value 1 meg
SYMBOL cap 1056 -96 R90
WINDOW 0 0 32 VBottom 2
WINDOW 3 32 32 VTop 2
SYMATTR InstName C1
SYMATTR Value 0.000001
SYMBOL res 1104 48 R0
SYMATTR InstName R5
SYMATTR Value 320K
SYMBOL res 1792 -208 R90
WINDOW 0 0 56 VBottom 2
WINDOW 3 32 56 VTop 2
SYMATTR InstName R6
SYMATTR Value 10K
SYMBOL cap 1904 0 R0
SYMATTR InstName C2
SYMATTR Value 0.000000354
SYMBOL OpAmps\\AD8221 848 -80 R0
SYMATTR InstName U1
SYMBOL voltage 848 -464 R0
SYMATTR InstName V4
SYMATTR Value 15
SYMBOL voltage 832 272 R0
WINDOW 123 0 0 Left 0
WINDOW 39 0 0 Left 0
SYMATTR InstName V5
SYMATTR Value 15
SYMBOL res 752 -144 R0
SYMATTR InstName R7
SYMATTR Value 2.63k
SYMBOL voltage 1600 -288 R270
WINDOW 0 32 56 VTop 2
WINDOW 3 -32 56 VBottom 2
SYMATTR InstName V6
SYMATTR Value 15
SYMBOL voltage 1264 -96 R0
SYMATTR InstName V7
SYMATTR Value 15
SYMBOL res 1344 -336 R90
WINDOW 0 0 56 VBottom 2
WINDOW 3 32 56 VTop 2
SYMATTR InstName R8
SYMATTR Value 49K
SYMBOL res 1184 -448 R0
SYMATTR InstName R9
SYMATTR Value 1k
SYMBOL OpAmps\\LT1013 1248 -288 R0
SYMATTR InstName U3
TEXT 296 96 Left 2 !.tran 10s
